Version 4
SHEET 1 1952 680
WIRE 944 -384 112 -384
WIRE 112 -80 112 -384
WIRE 112 -80 16 -80
WIRE 304 -80 112 -80
WIRE 480 -80 384 -80
WIRE 624 -80 576 -80
WIRE 944 -80 944 -384
WIRE 944 -80 848 -80
WIRE 1136 -80 944 -80
WIRE 1312 -80 1216 -80
WIRE 1456 -80 1408 -80
WIRE 624 -48 624 -80
WIRE 1456 -48 1456 -80
WIRE 112 -32 112 -80
WIRE 944 -32 944 -80
WIRE 16 -16 16 -80
WIRE 848 -16 848 -80
WIRE 16 96 16 48
WIRE 848 96 848 48
WIRE 112 112 112 48
WIRE 944 112 944 48
WIRE 112 224 112 192
WIRE 944 224 944 192
FLAG 112 224 0
FLAG 624 -48 0
FLAG 16 96 0
FLAG 944 224 0
FLAG 1456 -48 0
FLAG 848 96 0
SYMBOL voltage 112 96 R0
WINDOW 123 0 0 Left 2
WINDOW 39 0 0 Left 2
SYMATTR InstName V1
SYMATTR Value PULSE(0 5 0 1n 1n 4m 5m)
SYMBOL res 96 -48 R0
SYMATTR InstName R1
SYMATTR Value 100K
SYMATTR SpiceLine tol=1 pwr=0.1
SYMBOL memristor_with_state 528 -80 R270
SYMATTR InstName U1
SYMATTR SpiceModel MEM_BIOLEK
SYMBOL cap 0 -16 R0
SYMATTR InstName C1
SYMATTR Value 0.1µ
SYMATTR SpiceLine V=6.3 Irms=2.55 Rser=0.00502825 Lser=0 mfg="KEMET" pn="C0201C104K9PAC" type="X5R"
SYMBOL res 400 -96 R90
WINDOW 0 0 56 VBottom 2
WINDOW 3 32 56 VTop 2
SYMATTR InstName R2
SYMATTR Value 100K
SYMATTR SpiceLine tol=1 pwr=0.1
SYMBOL voltage 944 96 R0
WINDOW 123 0 0 Left 2
WINDOW 39 0 0 Left 2
WINDOW 3 24 44 Left 2
SYMATTR Value PULSE(0 -4 0 1n 1n 4m 5m 1)
SYMATTR InstName V2
SYMBOL res 928 -48 R0
SYMATTR InstName R3
SYMATTR Value 100K
SYMATTR SpiceLine tol=1 pwr=0.1
SYMBOL memristor_with_state 1360 -80 R90
SYMATTR InstName U2
SYMATTR SpiceModel MEM_BIOLEK
SYMBOL cap 832 -16 R0
SYMATTR InstName C2
SYMATTR Value 0.1µ
SYMATTR SpiceLine V=6.3 Irms=2.55 Rser=0.00502825 Lser=0 mfg="KEMET" pn="C0201C104K9PAC" type="X5R"
SYMBOL res 1232 -96 R90
WINDOW 0 0 56 VBottom 2
WINDOW 3 32 56 VTop 2
SYMATTR InstName R4
SYMATTR Value 100K
SYMATTR SpiceLine tol=1 pwr=0.1
TEXT 320 296 Left 2 !.lib memrs.lib
TEXT 336 336 Left 2 !.tran 1500m
