Version 4
SHEET 1 1852 680
WIRE 432 -784 368 -784
WIRE 368 -752 368 -784
WIRE 432 -752 432 -784
WIRE 16 -672 -32 -672
WIRE 432 -656 432 -672
WIRE 432 -656 304 -656
WIRE -32 -640 -32 -672
WIRE 16 -640 16 -672
WIRE 432 -624 432 -656
WIRE 1456 -624 896 -624
WIRE 368 -560 368 -576
WIRE 368 -544 368 -560
WIRE -112 -528 -208 -528
WIRE 16 -528 16 -560
WIRE 16 -528 -48 -528
WIRE 224 -528 16 -528
WIRE 304 -528 304 -656
WIRE 304 -528 288 -528
WIRE 336 -528 304 -528
WIRE 432 -512 432 -544
WIRE 432 -512 400 -512
WIRE 336 -496 304 -496
WIRE 896 -480 896 -624
WIRE 976 -480 896 -480
WIRE 1136 -480 1072 -480
WIRE -208 -464 -208 -528
WIRE 1136 -464 1136 -480
WIRE 1456 -464 1456 -624
WIRE 1536 -464 1456 -464
WIRE 1696 -464 1632 -464
WIRE 368 -448 368 -480
WIRE 1696 -448 1696 -464
WIRE 368 -432 368 -448
WIRE 896 -432 896 -480
WIRE 1456 -416 1456 -464
WIRE 224 -400 192 -400
WIRE 224 -352 224 -400
WIRE 304 -352 304 -496
WIRE 304 -352 224 -352
WIRE 320 -352 304 -352
WIRE 432 -352 432 -512
WIRE 432 -352 400 -352
WIRE -208 -304 -208 -384
WIRE 896 -272 896 -352
WIRE 1456 -256 1456 -336
WIRE 128 -240 128 -400
WIRE 224 -240 224 -352
WIRE 224 -240 192 -240
WIRE 128 -144 128 -240
WIRE 896 -144 896 -192
WIRE 1456 -128 1456 -176
WIRE -160 -112 -160 -160
WIRE -32 -96 -32 -160
WIRE -160 -64 -160 -112
WIRE -32 -64 -32 -96
WIRE -160 112 -160 16
WIRE -32 112 -32 16
FLAG -160 112 0
FLAG -160 -112 +V
FLAG -32 -96 -V
FLAG -32 112 0
FLAG 368 -448 +V
FLAG 368 -560 -V
FLAG 368 -752 0
FLAG 128 -144 0
FLAG -32 -640 0
FLAG -208 -304 0
FLAG 1136 -464 0
FLAG 896 -144 0
FLAG 1696 -448 0
FLAG 1456 -128 0
SYMBOL voltage -160 -80 R0
WINDOW 3 24 44 Left 2
WINDOW 123 0 0 Left 2
WINDOW 39 0 0 Left 2
SYMATTR Value 15
SYMATTR InstName V1
SYMBOL voltage -32 -80 R0
WINDOW 123 0 0 Left 2
WINDOW 39 0 0 Left 2
SYMATTR InstName V2
SYMATTR Value -15
SYMBOL Opamps\\UniversalOpamp2 368 -512 M180
SYMATTR InstName U1
SYMBOL cap -48 -544 R90
WINDOW 0 0 32 VBottom 2
WINDOW 3 32 32 VTop 2
SYMATTR InstName C1
SYMATTR Value 0.1µ
SYMATTR SpiceLine V=25 Irms=0 Rser=0.017282 Lser=350p mfg="Würth Elektronik" pn="885012207072 WCAP-CSGP 0805" type="X7R"
SYMBOL cap 192 -256 R90
WINDOW 0 0 32 VBottom 2
WINDOW 3 32 32 VTop 2
SYMATTR InstName C2
SYMATTR Value 0.01µ
SYMATTR SpiceLine V=25 Irms=0 Rser=0.026173 Lser=533.953p mfg="Würth Elektronik" pn="885012008030 WCAP-CSGP 1206" type="NP0"
SYMBOL res 0 -656 R0
SYMATTR InstName R1
SYMATTR Value 100K
SYMATTR SpiceLine tol=1 pwr=0.1
SYMBOL res 416 -368 R90
WINDOW 0 0 56 VBottom 2
WINDOW 3 32 56 VTop 2
SYMATTR InstName R2
SYMATTR Value 63.4K
SYMATTR SpiceLine tol=1 pwr=0.1
SYMBOL res 416 -640 R0
SYMATTR InstName R3
SYMATTR Value 200K
SYMATTR SpiceLine tol=1 pwr=0.1
SYMBOL res 416 -768 R0
SYMATTR InstName R4
SYMATTR Value 806K
SYMATTR SpiceLine tol=1 pwr=0.1
SYMBOL diode 224 -512 R270
WINDOW 0 32 32 VTop 2
WINDOW 3 0 32 VBottom 2
SYMATTR InstName D1
SYMATTR Value 1N914
SYMBOL diode 128 -384 R270
WINDOW 0 32 32 VTop 2
WINDOW 3 0 32 VBottom 2
SYMATTR InstName D2
SYMATTR Value 1N914
SYMBOL voltage -208 -480 R0
WINDOW 123 0 0 Left 2
WINDOW 39 0 0 Left 2
SYMATTR InstName V3
SYMATTR Value PULSE(-5 5 0 1n 1n 0.0005 0.002)
SYMBOL memristor_with_state 1024 -480 R270
SYMATTR InstName U2
SYMATTR SpiceModel MEM_BIOLEK
SYMBOL res 880 -448 R0
SYMATTR InstName R5
SYMATTR Value 100k
SYMBOL voltage 896 -288 R0
WINDOW 123 0 0 Left 2
WINDOW 39 0 0 Left 2
SYMATTR InstName V4
SYMATTR Value PULSE(0 1 0 1n 1n 0.0005 0.01)
SYMBOL memristor_with_state 1584 -464 R90
SYMATTR InstName U3
SYMATTR SpiceModel MEM_BIOLEK
SYMBOL res 1440 -432 R0
SYMATTR InstName R6
SYMATTR Value 100k
SYMBOL voltage 1456 -272 R0
WINDOW 123 0 0 Left 2
WINDOW 39 0 0 Left 2
SYMATTR InstName V5
SYMATTR Value PULSE(0 -1 0 1n 1n 0.0005 0.002)
TEXT 136 256 Left 2 !.lib memrs.lib
TEXT 64 280 Left 2 !.tran 1
