Version 4
SHEET 1 1852 680
WIRE 288 -1200 256 -1200
WIRE 256 -1184 256 -1200
WIRE 288 -1184 288 -1200
WIRE 304 -1184 288 -1184
WIRE 448 -1168 368 -1168
WIRE 160 -1152 -368 -1152
WIRE 272 -1152 240 -1152
WIRE 304 -1152 272 -1152
WIRE -368 -1072 -368 -1152
WIRE 272 -1056 272 -1152
WIRE 304 -1056 272 -1056
WIRE 448 -1056 448 -1168
WIRE 448 -1056 368 -1056
WIRE 880 -1056 448 -1056
WIRE 1120 -1040 1056 -1040
WIRE 1248 -1040 1200 -1040
WIRE 1360 -1040 1248 -1040
WIRE 1520 -1040 1440 -1040
WIRE 1056 -1008 1056 -1040
WIRE 272 -960 272 -1056
WIRE 304 -960 272 -960
WIRE 448 -960 448 -1056
WIRE 448 -960 384 -960
WIRE -368 -944 -368 -992
WIRE 880 -896 880 -1056
WIRE 992 -896 880 -896
WIRE 1136 -896 1072 -896
WIRE 1248 -880 1248 -1040
WIRE 1280 -880 1248 -880
WIRE 1520 -864 1520 -1040
WIRE 1520 -864 1344 -864
WIRE 1136 -848 1136 -896
WIRE 1184 -848 1136 -848
WIRE 1280 -848 1184 -848
WIRE 1184 -800 1184 -848
WIRE 432 -784 368 -784
WIRE 992 -784 880 -784
WIRE 1136 -784 1136 -848
WIRE 1136 -784 1072 -784
WIRE 368 -752 368 -784
WIRE 432 -752 432 -784
WIRE 16 -672 -32 -672
WIRE 1184 -672 1184 -720
WIRE 432 -656 432 -672
WIRE 432 -656 304 -656
WIRE -32 -640 -32 -672
WIRE 16 -640 16 -672
WIRE 432 -624 432 -656
WIRE 368 -560 368 -576
WIRE 720 -560 688 -560
WIRE 368 -544 368 -560
WIRE 688 -544 688 -560
WIRE 720 -544 720 -560
WIRE 736 -544 720 -544
WIRE -256 -528 -368 -528
WIRE -112 -528 -256 -528
WIRE 16 -528 16 -560
WIRE 16 -528 -48 -528
WIRE 224 -528 16 -528
WIRE 304 -528 304 -656
WIRE 304 -528 288 -528
WIRE 336 -528 304 -528
WIRE 880 -528 880 -784
WIRE 880 -528 800 -528
WIRE 432 -512 432 -544
WIRE 432 -512 400 -512
WIRE 512 -512 432 -512
WIRE 592 -512 512 -512
WIRE 704 -512 672 -512
WIRE 736 -512 704 -512
WIRE 336 -496 304 -496
WIRE -368 -464 -368 -528
WIRE 368 -448 368 -480
WIRE 368 -432 368 -448
WIRE 704 -416 704 -512
WIRE 736 -416 704 -416
WIRE 880 -416 880 -528
WIRE 880 -416 800 -416
WIRE 224 -400 192 -400
WIRE 224 -352 224 -400
WIRE 304 -352 304 -496
WIRE 304 -352 224 -352
WIRE 320 -352 304 -352
WIRE 432 -352 432 -512
WIRE 432 -352 400 -352
WIRE -368 -336 -368 -384
WIRE 704 -320 704 -416
WIRE 736 -320 704 -320
WIRE 880 -320 880 -416
WIRE 880 -320 816 -320
WIRE 128 -240 128 -400
WIRE 224 -240 224 -352
WIRE 224 -240 192 -240
WIRE 128 -144 128 -240
WIRE -416 -112 -416 -160
WIRE -160 -112 -160 -160
WIRE -288 -96 -288 -160
WIRE -32 -96 -32 -160
WIRE -416 -64 -416 -112
WIRE -288 -64 -288 -96
WIRE -160 -64 -160 -112
WIRE -32 -64 -32 -96
WIRE -416 112 -416 16
WIRE -288 112 -288 16
WIRE -160 112 -160 16
WIRE -32 112 -32 16
FLAG -160 112 0
FLAG -160 -112 +5V
FLAG -32 -96 -5V
FLAG -32 112 0
FLAG 368 -448 +5V
FLAG 368 -560 -5V
FLAG 368 -752 0
FLAG 128 -144 0
FLAG -32 -640 0
FLAG 768 -560 -5V
FLAG 768 -496 +5V
FLAG 688 -544 0
FLAG 880 -528 INT1
FLAG 512 -512 PULSE
FLAG 336 -1200 -5V
FLAG 336 -1136 +5V
FLAG 256 -1184 0
FLAG 448 -1168 INT2
FLAG -416 112 0
FLAG -416 -112 +15V
FLAG -288 -96 -15V
FLAG -288 112 0
FLAG -368 -336 0
FLAG -368 -944 0
FLAG -256 -528 INPUT
FLAG 1312 -832 -15V
FLAG 1312 -896 +15V
FLAG 1184 -672 0
FLAG 1056 -1008 0
SYMBOL voltage -160 -80 R0
WINDOW 3 24 44 Left 2
WINDOW 123 0 0 Left 2
WINDOW 39 0 0 Left 2
SYMATTR Value 5
SYMATTR InstName V1
SYMBOL voltage -32 -80 R0
WINDOW 123 0 0 Left 2
WINDOW 39 0 0 Left 2
SYMATTR InstName V2
SYMATTR Value -5
SYMBOL Opamps\\UniversalOpamp2 368 -512 M180
SYMATTR InstName U1
SYMBOL cap -48 -544 R90
WINDOW 0 0 32 VBottom 2
WINDOW 3 32 32 VTop 2
SYMATTR InstName C1
SYMATTR Value 0.1µ
SYMATTR SpiceLine V=25 Irms=0 Rser=0.017282 Lser=350p mfg="Würth Elektronik" pn="885012207072 WCAP-CSGP 0805" type="X7R"
SYMBOL cap 192 -256 R90
WINDOW 0 0 32 VBottom 2
WINDOW 3 32 32 VTop 2
SYMATTR InstName C2
SYMATTR Value 0.012µ
SYMATTR SpiceLine V=25 Irms=332m Rser=0.302696 Lser=0 mfg="KEMET" pn="C0805F123K3RAC" type="X7R"
SYMBOL res 0 -656 R0
SYMATTR InstName R1
SYMATTR Value 100K
SYMATTR SpiceLine tol=1 pwr=0.1
SYMBOL res 416 -368 R90
WINDOW 0 0 56 VBottom 2
WINDOW 3 32 56 VTop 2
SYMATTR InstName R2
SYMATTR Value 75K
SYMATTR SpiceLine tol=1 pwr=0.1
SYMBOL res 416 -640 R0
SYMATTR InstName R3
SYMATTR Value 200K
SYMATTR SpiceLine tol=1 pwr=0.1
SYMBOL res 416 -768 R0
SYMATTR InstName R4
SYMATTR Value 806K
SYMATTR SpiceLine tol=1 pwr=0.1
SYMBOL diode 224 -512 R270
WINDOW 0 32 32 VTop 2
WINDOW 3 0 32 VBottom 2
SYMATTR InstName D1
SYMATTR Value 1N914
SYMBOL diode 128 -384 R270
WINDOW 0 32 32 VTop 2
WINDOW 3 0 32 VBottom 2
SYMATTR InstName D2
SYMATTR Value 1N914
SYMBOL Opamps\\UniversalOpamp2 768 -528 M180
SYMATTR InstName U2
SYMBOL cap 800 -432 R90
WINDOW 0 0 32 VBottom 2
WINDOW 3 32 32 VTop 2
SYMATTR InstName C3
SYMATTR Value 0.0068µ
SYMATTR SpiceLine V=25 Irms=0 Rser=0.0165691 Lser=256.21p mfg="Würth Elektronik" pn="885012009005 WCAP-CSGP 1210" type="NP0"
SYMBOL res 832 -336 R90
WINDOW 0 0 56 VBottom 2
WINDOW 3 32 56 VTop 2
SYMATTR InstName R5
SYMATTR Value 100K
SYMATTR SpiceLine tol=1 pwr=0.1
SYMBOL res 688 -528 R90
WINDOW 0 0 56 VBottom 2
WINDOW 3 32 56 VTop 2
SYMATTR InstName R6
SYMATTR Value 100K
SYMATTR SpiceLine tol=1 pwr=0.1
SYMBOL Opamps\\UniversalOpamp2 336 -1168 M180
SYMATTR InstName U3
SYMBOL cap 368 -1072 R90
WINDOW 0 0 32 VBottom 2
WINDOW 3 32 32 VTop 2
SYMATTR InstName C4
SYMATTR Value 0.0068µ
SYMATTR SpiceLine V=25 Irms=0 Rser=0.0165691 Lser=256.21p mfg="Würth Elektronik" pn="885012009005 WCAP-CSGP 1210" type="NP0"
SYMBOL res 400 -976 R90
WINDOW 0 0 56 VBottom 2
WINDOW 3 32 56 VTop 2
SYMATTR InstName R7
SYMATTR Value 100K
SYMATTR SpiceLine tol=1 pwr=0.1
SYMBOL res 256 -1168 R90
WINDOW 0 0 56 VBottom 2
WINDOW 3 32 56 VTop 2
SYMATTR InstName R8
SYMATTR Value 100K
SYMATTR SpiceLine tol=1 pwr=0.1
SYMBOL voltage -416 -80 R0
WINDOW 3 24 44 Left 2
WINDOW 123 0 0 Left 2
WINDOW 39 0 0 Left 2
SYMATTR Value 15
SYMATTR InstName V3
SYMBOL voltage -288 -80 R0
WINDOW 123 0 0 Left 2
WINDOW 39 0 0 Left 2
SYMATTR InstName V4
SYMATTR Value -15
SYMBOL voltage -368 -480 R0
WINDOW 3 24 44 Left 2
WINDOW 123 0 0 Left 2
WINDOW 39 0 0 Left 2
SYMATTR Value PULSE(-5 5 0 1n 1n 0.0005 0.003)
SYMATTR InstName V5
SYMBOL voltage -368 -1088 R0
WINDOW 3 24 44 Left 2
WINDOW 123 0 0 Left 2
WINDOW 39 0 0 Left 2
SYMATTR Value PULSE(-5 5 0 1n 1n 0.0015 0.0031)
SYMATTR InstName V6
SYMBOL Opamps\\UniversalOpamp2 1312 -864 R0
SYMATTR InstName U4
SYMBOL res 1088 -912 R90
WINDOW 0 0 56 VBottom 2
WINDOW 3 32 56 VTop 2
SYMATTR InstName R9
SYMATTR Value 100K
SYMATTR SpiceLine tol=1 pwr=0.1
SYMBOL res 1088 -800 R90
WINDOW 0 0 56 VBottom 2
WINDOW 3 32 56 VTop 2
SYMATTR InstName R10
SYMATTR Value 100K
SYMATTR SpiceLine tol=1 pwr=0.1
SYMBOL res 1200 -704 R180
WINDOW 0 -55 77 Left 2
WINDOW 3 -67 48 Left 2
SYMATTR InstName R11
SYMATTR Value 100K
SYMATTR SpiceLine tol=1 pwr=0.1
SYMBOL res 1104 -1024 R270
WINDOW 0 32 56 VTop 2
WINDOW 3 0 56 VBottom 2
SYMATTR InstName R12
SYMATTR Value 100K
SYMATTR SpiceLine tol=1 pwr=0.1
SYMBOL res 1344 -1024 R270
WINDOW 0 32 56 VTop 2
WINDOW 3 0 56 VBottom 2
SYMATTR InstName R13
SYMATTR Value 200K
SYMATTR SpiceLine tol=1 pwr=0.1
TEXT 248 -48 Left 2 !.lib memrs.lib
TEXT 176 -24 Left 2 !.tran 0.5
